IEEE 30 Bus/IEEE_30_VLN.Txt

SYMMETRICAL COMPONENT VOLTAGES BY BUS (for 3-phase buses)

Bus   Mag:   V1 (kV)    p.u.     V2 (kV)   %V2/V1    V0 (kV)    %V0/V1

b1       80.78       1.06   5.255E-9   6.505E-9  5.255E-9  6.505E-9
b2       79.49      1.043   5.507E-9   6.928E-9  4.917E-9  6.186E-9
b3       77.78      1.021   5.533E-9   7.113E-9  4.728E-9  6.078E-9
b4        77.1      1.012   5.599E-9   7.262E-9  4.774E-9  6.192E-9
b5       76.97       1.01     5.9E-9   7.665E-9  5.549E-9   7.21E-9
b6       76.97       1.01   5.703E-9   7.409E-9  4.961E-9  6.446E-9
b7       76.38      1.002   5.783E-9   7.571E-9  5.174E-9  6.774E-9
b8       76.93      1.009   5.741E-9   7.464E-9  5.065E-9  6.585E-9
b12      20.15      1.058   1.556E-9   7.719E-9  1.338E-9  6.637E-9
b14      19.87      1.043   1.553E-9   7.816E-9  1.326E-9  6.673E-9
b15      19.78      1.038    1.55E-9   7.837E-9  1.316E-9  6.652E-9
b16      19.91      1.045   1.551E-9   7.791E-9  1.325E-9  6.654E-9
b17      19.82       1.04   1.552E-9   7.831E-9  1.335E-9  6.735E-9
b18       19.6      1.029    1.55E-9   7.909E-9  1.318E-9  6.727E-9
b19      19.55      1.026    1.55E-9   7.931E-9  1.322E-9  6.765E-9
b20      19.62       1.03   1.552E-9   7.906E-9  1.329E-9  6.771E-9
b10      19.91      1.045   1.555E-9   7.811E-9  1.351E-9  6.782E-9
b21      19.68      1.033   1.549E-9   7.873E-9  1.328E-9  6.746E-9
b22      19.69      1.033    1.55E-9   7.872E-9  1.329E-9  6.749E-9
b23      19.58      1.028   1.546E-9   7.897E-9  1.306E-9   6.67E-9
b24      19.47      1.022   1.544E-9   7.932E-9  1.307E-9  6.715E-9
b25      19.38      1.017   1.534E-9   7.916E-9  1.305E-9  6.735E-9
b26      19.05     0.9996   1.524E-9   8.003E-9  1.267E-9  6.653E-9
b27      19.49      1.023   1.532E-9    7.86E-9  1.322E-9  6.781E-9
b29      19.11      1.003   1.533E-9   8.022E-9  1.316E-9  6.883E-9
b30       18.9     0.9918   1.537E-9   8.136E-9  1.326E-9   7.02E-9
b28       76.7      1.006    5.73E-9    7.47E-9  4.985E-9  6.499E-9
b9      0.6068      1.051  4.643E-11   7.652E-9 4.041E-11   6.66E-9
b11      6.873      1.082  5.218E-10   7.592E-9 4.571E-10  6.652E-9
b13       6.81      1.072  5.238E-10   7.692E-9  4.52E-10  6.637E-9
